<?xml version='1.0' encoding='utf-8'?>
<routes xmlns:xsi="http://www.w3.org/2001/XMLSchema-instance" xsi:noNamespaceSchemaLocation="http://sumo.dlr.de/xsd/routes_file.xsd">
    <vType id="truck" length="7.50" minGap="4.50" maxSpeed="36.11" probability="0.80" speedFactor="normc(1.02,0.18,0.20,2.00)" vClass="truck" impatience="0.15" guiShape="truck" width="2.60" minGapLat="1.50" lcStrategic="3.83" lcCooperative="1.45" lcSpeedGain="11.29" lcKeepRight="0.90" lcSublane="2.00" lcImpatience="0.00" lcMaxSpeedLatStanding="0.00" lcSigma="0.14" accel="1.45" decel="3.72" sigma="0.67" />
    <vehicle id="0" depart="0.00" departLane="free" departPos="random_free" departSpeed="max">
        <route edges="7 1 52 49 14 17 25 32" />
    </vehicle>
    <vType id="passenger" length="5.35" minGap="3.79" maxSpeed="50.00" probability="4.00" speedFactor="normc(1.01,0.18,0.20,2.00)" vClass="passenger" impatience="0.16" guiShape="passenger" width="2.01" minGapLat="1.50" lcStrategic="4.69" lcCooperative="2.70" lcSpeedGain="14.85" lcKeepRight="0.84" lcSublane="2.00" lcImpatience="0.00" lcMaxSpeedLatStanding="0.00" lcSigma="0.12" accel="2.16" decel="5.67" sigma="0.61" />
    <vehicle id="1" depart="0.08" departLane="free" departPos="random_free" departSpeed="max">
        <route edges="47 50 11" />
    </vehicle>
    <vehicle id="2" depart="0.17" departLane="free" departPos="random_free" departSpeed="max">
        <route edges="7 1 52 49 14 34 40 59" />
    </vehicle>
    <vehicle id="3" depart="0.25" departLane="free" departPos="random_free" departSpeed="max">
        <route edges="5 1 52 49 14 17 25 32" />
    </vehicle>
    <vehicle id="4" depart="0.34" departLane="free" departPos="random_free" departSpeed="max">
        <route edges="47 50 53 2 4" />
    </vehicle>
    <vehicle id="5" depart="0.42" departLane="free" departPos="random_free" departSpeed="max">
        <route edges="7 1 52 49 14 17 20" />
    </vehicle>
    <vehicle id="6" depart="0.50" departLane="free" departPos="random_free" departSpeed="max">
        <route edges="7 1 52 49 14 34 40 55 2 8" />
    </vehicle>
    <vehicle id="7" depart="0.59" departLane="free" departPos="random_free" departSpeed="max">
        <route edges="28 20" />
    </vehicle>
    <vehicle id="8" depart="0.67" departLane="free" departPos="random_free" departSpeed="max">
        <route edges="19 25 32" />
    </vehicle>
    <vehicle id="9" depart="0.75" departLane="free" departPos="random_free" departSpeed="max">
        <route edges="5 1 52 11" />
    </vehicle>
    <vehicle id="10" depart="0.84" departLane="free" departPos="random_free" departSpeed="max">
        <route edges="10 49 14 34 40 55 52 11" />
    </vehicle>
    <vehicle id="11" depart="0.92" departLane="free" departPos="random_free" departSpeed="max">
        <route edges="7 1 52 49 14 34 44 38" />
    </vehicle>
    <vehicle id="12" depart="1.01" departLane="free" departPos="random_free" departSpeed="max">
        <route edges="19 25 32" />
    </vehicle>
    <vehicle id="13" depart="1.09" departLane="free" departPos="random_free" departSpeed="max">
        <route edges="10 49 46" />
    </vehicle>
    <vehicle id="14" depart="1.17" departLane="free" departPos="random_free" departSpeed="max">
        <route edges="7 1 52 49 46" />
    </vehicle>
    <vehicle id="15" depart="1.26" departLane="free" departPos="random_free" departSpeed="max">
        <route edges="37 43 40 55 52 11" />
    </vehicle>
    <vehicle id="16" depart="1.34" departLane="free" departPos="random_free" departSpeed="max">
        <route edges="19 29" />
    </vehicle>
    <vehicle id="17" depart="1.42" departLane="free" departPos="random_free" departSpeed="max">
        <route edges="58 41 44 23 32" />
    </vehicle>
    <vehicle id="18" depart="1.51" departLane="free" departPos="random_free" departSpeed="max">
        <route edges="58 41 44 23 26 29" />
    </vehicle>
    <vehicle id="19" depart="1.59" departLane="free" departPos="random_free" departSpeed="max">
        <route edges="10 49 14 17 29" />
    </vehicle>
    <vehicle id="20" depart="1.68" departLane="free" departPos="random_free" departSpeed="max">
        <route edges="5 1 52 49 14 17 20" />
    </vehicle>
    <vehicle id="21" depart="1.76" departLane="free" departPos="random_free" departSpeed="max">
        <route edges="10 49 46" />
    </vehicle>
    <vehicle id="22" depart="1.84" departLane="free" departPos="random_free" departSpeed="max">
        <route edges="31 22 43 35 17 25 32" />
    </vehicle>
    <vehicle id="23" depart="1.93" departLane="free" departPos="random_free" departSpeed="max">
        <route edges="58 41 44 23 32" />
    </vehicle>
    <vType id="bus" length="12.40" minGap="2.50" maxSpeed="23.61" probability="0.30" speedFactor="normc(0.99,0.20,0.20,2.00)" vClass="bus" impatience="0.13" guiShape="bus" width="2.70" minGapLat="1.50" lcStrategic="1.13" lcCooperative="1.86" lcSpeedGain="6.69" lcKeepRight="0.88" lcSublane="2.00" lcImpatience="0.00" lcMaxSpeedLatStanding="0.00" lcSigma="0.11" accel="1.06" decel="3.07" sigma="0.58" />
    <vehicle id="24" depart="2.01" departLane="free" departPos="random_free" departSpeed="max">
        <route edges="47 14 34 40 55 52 49 46" />
    </vehicle>
    <vehicle id="25" depart="2.10" departLane="free" departPos="random_free" departSpeed="max">
        <route edges="58 55 52 49 14 34 40 59" />
    </vehicle>
    <vehicle id="26" depart="2.18" departLane="free" departPos="random_free" departSpeed="max">
        <route edges="19 16 34 40 59" />
    </vehicle>
    <vehicle id="27" depart="2.26" departLane="free" departPos="random_free" departSpeed="max">
        <route edges="7 1 52 49 14 34 44 38" />
    </vehicle>
    <vehicle id="28" depart="2.35" departLane="free" departPos="random_free" departSpeed="max">
        <route edges="37 23 32" />
    </vehicle>
    <vehicle id="29" depart="2.43" departLane="free" departPos="random_free" departSpeed="max">
        <route edges="5 1 52 49 14 17 25 32" />
    </vehicle>
    <vehicle id="30" depart="2.51" departLane="free" departPos="random_free" departSpeed="max">
        <route edges="31 26 29" />
    </vehicle>
    <vehicle id="31" depart="2.60" departLane="free" departPos="random_free" departSpeed="max">
        <route edges="47 50 53 2 8" />
    </vehicle>
    <vehicle id="32" depart="2.68" departLane="free" departPos="random_free" departSpeed="max">
        <route edges="10 53 56 59" />
    </vehicle>
    <vehicle id="33" depart="2.77" departLane="free" departPos="random_free" departSpeed="max">
        <route edges="37 43 35 17 25 22 38" />
    </vehicle>
    <vehicle id="34" depart="2.85" departLane="free" departPos="random_free" departSpeed="max">
        <route edges="47 14 34 40 55 52 49 46" />
    </vehicle>
    <vehicle id="35" depart="2.93" departLane="free" departPos="random_free" departSpeed="max">
        <route edges="47 50 53 56 41 44 38" />
    </vehicle>
    <vehicle id="36" depart="3.02" departLane="free" departPos="random_free" departSpeed="max">
        <route edges="31 22 43 35 17 25 32" />
    </vehicle>
    <vehicle id="37" depart="3.10" departLane="free" departPos="random_free" departSpeed="max">
        <route edges="10 49 14 17 20" />
    </vehicle>
    <vehicle id="38" depart="3.18" departLane="free" departPos="random_free" departSpeed="max">
        <route edges="47 14 17 29" />
    </vehicle>
    <vehicle id="39" depart="3.27" departLane="free" departPos="random_free" departSpeed="max">
        <route edges="28 20" />
    </vehicle>
    <vehicle id="40" depart="3.35" departLane="free" departPos="random_free" departSpeed="max">
        <route edges="19 16 13 50 53 2 8" />
    </vehicle>
    <vType id="bicycle" length="2.00" minGap="1.00" maxSpeed="6.94" probability="0.20" speedFactor="normc(1.03,0.15,0.20,2.00)" vClass="bicycle" impatience="0.15" guiShape="bicycle" width="0.68" minGapLat="1.50" lcStrategic="2.05" lcCooperative="2.64" lcSpeedGain="10.13" lcKeepRight="0.83" lcSublane="2.00" lcImpatience="0.00" lcMaxSpeedLatStanding="0.00" lcSigma="0.13" accel="1.25" decel="3.24" sigma="0.52" />
    <vehicle id="41" depart="3.44" departLane="free" departPos="random_free" departSpeed="max">
        <route edges="28 16 34 40 59" />
    </vehicle>
    <vehicle id="42" depart="3.52" departLane="free" departPos="random_free" departSpeed="max">
        <route edges="7 4" />
    </vehicle>
    <vehicle id="43" depart="3.60" departLane="free" departPos="random_free" departSpeed="max">
        <route edges="10 49 14 34 40 55 52 11" />
    </vehicle>
    <vehicle id="44" depart="3.69" departLane="free" departPos="random_free" departSpeed="max">
        <route edges="19 16 13 50 53 2 4" />
    </vehicle>
    <vehicle id="45" depart="3.77" departLane="free" departPos="random_free" departSpeed="max">
        <route edges="28 25 22 38" />
    </vehicle>
    <vehicle id="46" depart="3.85" departLane="free" departPos="random_free" departSpeed="max">
        <route edges="37 23 32" />
    </vehicle>
    <vehicle id="47" depart="3.94" departLane="free" departPos="random_free" departSpeed="max">
        <route edges="47 50 53 2 8" />
    </vehicle>
    <vehicle id="48" depart="4.02" departLane="free" departPos="random_free" departSpeed="max">
        <route edges="37 43 40 55 52 11" />
    </vehicle>
    <vehicle id="49" depart="4.11" departLane="free" departPos="random_free" departSpeed="max">
        <route edges="7 1 52 49 14 34 40 55 2 8" />
    </vehicle>
    <vehicle id="50" depart="4.19" departLane="free" departPos="random_free" departSpeed="max">
        <route edges="47 50 53 56 59" />
    </vehicle>
    <vehicle id="51" depart="4.27" departLane="free" departPos="random_free" departSpeed="max">
        <route edges="47 50 53 56 59" />
    </vehicle>
    <vehicle id="52" depart="4.36" departLane="free" departPos="random_free" departSpeed="max">
        <route edges="31 22 38" />
    </vehicle>
    <vehicle id="53" depart="4.44" departLane="free" departPos="random_free" departSpeed="max">
        <route edges="10 53 56 41 44 38" />
    </vehicle>
    <vehicle id="54" depart="4.53" departLane="free" departPos="random_free" departSpeed="max">
        <route edges="10 49 14 17 20" />
    </vehicle>
    <vehicle id="55" depart="4.61" departLane="free" departPos="random_free" departSpeed="max">
        <route edges="19 25 22 38" />
    </vehicle>
    <vehicle id="56" depart="4.69" departLane="free" departPos="random_free" departSpeed="max">
        <route edges="5 1 52 49 14 34 44 38" />
    </vehicle>
    <vehicle id="57" depart="4.78" departLane="free" departPos="random_free" departSpeed="max">
        <route edges="31 22 43 40 59" />
    </vehicle>
    <vehicle id="58" depart="4.86" departLane="free" departPos="random_free" departSpeed="max">
        <route edges="10 53 56 41 44 38" />
    </vehicle>
    <vehicle id="59" depart="4.94" departLane="free" departPos="random_free" departSpeed="max">
        <route edges="47 50 53 56 59" />
    </vehicle>
    <vehicle id="60" depart="5.03" departLane="free" departPos="random_free" departSpeed="max">
        <route edges="47 14 17 29" />
    </vehicle>
    <vehicle id="61" depart="5.11" departLane="free" departPos="random_free" departSpeed="max">
        <route edges="58 41 44 23 32" />
    </vehicle>
    <vehicle id="62" depart="5.20" departLane="free" departPos="random_free" departSpeed="max">
        <route edges="19 25 22 38" />
    </vehicle>
    <vehicle id="63" depart="5.28" departLane="free" departPos="random_free" departSpeed="max">
        <route edges="58 41 44 38" />
    </vehicle>
    <vehicle id="64" depart="5.36" departLane="free" departPos="random_free" departSpeed="max">
        <route edges="10 49 14 17 25 32" />
    </vehicle>
    <vehicle id="65" depart="5.45" departLane="free" departPos="random_free" departSpeed="max">
        <route edges="19 16 34 40 59" />
    </vehicle>
    <vehicle id="66" depart="5.53" departLane="free" departPos="random_free" departSpeed="max">
        <route edges="37 43 40 55 52 11" />
    </vehicle>
    <vehicle id="67" depart="5.61" departLane="free" departPos="random_free" departSpeed="max">
        <route edges="37 43 40 55 52 11" />
    </vehicle>
    <vehicle id="egoVehicle68" depart="5.70" departLane="free" departPos="random_free" departSpeed="max">
        <route edges="28 25 32" />
    </vehicle>
    <vehicle id="69" depart="5.78" departLane="free" departPos="random_free" departSpeed="max">
        <route edges="10 53 2 4" />
    </vehicle>
    <vehicle id="70" depart="5.87" departLane="free" departPos="random_free" departSpeed="max">
        <route edges="28 16 13 50 53 2 4" />
    </vehicle>
    <vehicle id="71" depart="5.95" departLane="free" departPos="random_free" departSpeed="max">
        <route edges="19 25 22 43 35 17 20" />
    </vehicle>
    <vehicle id="72" depart="6.03" departLane="free" departPos="random_free" departSpeed="max">
        <route edges="7 1 52 49 14 17 25 32" />
    </vehicle>
    <vehicle id="73" depart="6.12" departLane="free" departPos="random_free" departSpeed="max">
        <route edges="28 25 22 43 40 59" />
    </vehicle>
    <vehicle id="74" depart="6.20" departLane="free" departPos="random_free" departSpeed="max">
        <route edges="10 53 56 41 44 38" />
    </vehicle>
    <vehicle id="75" depart="6.29" departLane="free" departPos="random_free" departSpeed="max">
        <route edges="7 1 52 49 14 34 40 55 2 8" />
    </vehicle>
    <vehicle id="76" depart="6.37" departLane="free" departPos="random_free" departSpeed="max">
        <route edges="58 55 52 11" />
    </vehicle>
    <vehicle id="77" depart="6.45" departLane="free" departPos="random_free" departSpeed="max">
        <route edges="31 22 43 35 17 25 32" />
    </vehicle>
    <vehicle id="78" depart="6.54" departLane="free" departPos="random_free" departSpeed="max">
        <route edges="10 49 14 17 20" />
    </vehicle>
    <vehicle id="79" depart="6.62" departLane="free" departPos="random_free" departSpeed="max">
        <route edges="47 50 11" />
    </vehicle>
    <vehicle id="80" depart="6.70" departLane="free" departPos="random_free" departSpeed="max">
        <route edges="31 22 43 40 59" />
    </vehicle>
    <vehicle id="81" depart="6.79" departLane="free" departPos="random_free" departSpeed="max">
        <route edges="28 16 13 50 53 2 8" />
    </vehicle>
    <vehicle id="82" depart="6.87" departLane="free" departPos="random_free" departSpeed="max">
        <route edges="31 22 43 40 55 2 4" />
    </vehicle>
    <vehicle id="83" depart="6.96" departLane="free" departPos="random_free" departSpeed="max">
        <route edges="58 41 44 23 26 29" />
    </vehicle>
    <vehicle id="84" depart="7.04" departLane="free" departPos="random_free" departSpeed="max">
        <route edges="10 49 14 17 25 32" />
    </vehicle>
    <vehicle id="85" depart="7.12" departLane="free" departPos="random_free" departSpeed="max">
        <route edges="10 49 46" />
    </vehicle>
    <vehicle id="86" depart="7.21" departLane="free" departPos="random_free" departSpeed="max">
        <route edges="19 16 34 40 59" />
    </vehicle>
    <vehicle id="87" depart="7.29" departLane="free" departPos="random_free" departSpeed="max">
        <route edges="37 43 40 55 2 8" />
    </vehicle>
    <vehicle id="88" depart="7.37" departLane="free" departPos="random_free" departSpeed="max">
        <route edges="28 25 32" />
    </vehicle>
    <vehicle id="89" depart="7.46" departLane="free" departPos="random_free" departSpeed="max">
        <route edges="10 49 46" />
    </vehicle>
    <vehicle id="90" depart="7.54" departLane="free" departPos="random_free" departSpeed="max">
        <route edges="47 14 34 40 55 52 49 46" />
    </vehicle>
    <vehicle id="91" depart="7.63" departLane="free" departPos="random_free" departSpeed="max">
        <route edges="31 22 43 35 17 25 32" />
    </vehicle>
    <vehicle id="92" depart="7.71" departLane="free" departPos="random_free" departSpeed="max">
        <route edges="37 43 40 55 52 49 46" />
    </vehicle>
    <vehicle id="93" depart="7.79" departLane="free" departPos="random_free" departSpeed="max">
        <route edges="5 1 52 49 14 34 40 55 2 4" />
    </vehicle>
    <vehicle id="94" depart="7.88" departLane="free" departPos="random_free" departSpeed="max">
        <route edges="5 1 52 49 14 17 25 32" />
    </vehicle>
    <vehicle id="95" depart="7.96" departLane="free" departPos="random_free" departSpeed="max">
        <route edges="28 16 13 50 53 2 8" />
    </vehicle>
    <vehicle id="96" depart="8.04" departLane="free" departPos="random_free" departSpeed="max">
        <route edges="28 25 22 43 40 59" />
    </vehicle>
    <vehicle id="97" depart="8.13" departLane="free" departPos="random_free" departSpeed="max">
        <route edges="19 16 13 50 53 2 4" />
    </vehicle>
    <vehicle id="98" depart="8.21" departLane="free" departPos="random_free" departSpeed="max">
        <route edges="10 53 56 41 44 38" />
    </vehicle>
    <vehicle id="99" depart="8.30" departLane="free" departPos="random_free" departSpeed="max">
        <route edges="58 55 2 4" />
    </vehicle>
    <vehicle id="100" depart="8.38" departLane="free" departPos="random_free" departSpeed="max">
        <route edges="10 49 14 17 25 32" />
    </vehicle>
    <vehicle id="101" depart="8.46" departLane="free" departPos="random_free" departSpeed="max">
        <route edges="5 1 52 49 14 34 40 55 2 4" />
    </vehicle>
    <vehicle id="102" depart="8.55" departLane="free" departPos="random_free" departSpeed="max">
        <route edges="47 14 34 40 55 52 49 46" />
    </vehicle>
    <vehicle id="103" depart="8.63" departLane="free" departPos="random_free" departSpeed="max">
        <route edges="19 16 13 50 53 2 8" />
    </vehicle>
    <vehicle id="104" depart="8.72" departLane="free" departPos="random_free" departSpeed="max">
        <route edges="37 43 40 55 2 4" />
    </vehicle>
    <vehicle id="105" depart="8.80" departLane="free" departPos="random_free" departSpeed="max">
        <route edges="47 14 34 40 55 52 49 46" />
    </vehicle>
    <vehicle id="106" depart="8.88" departLane="free" departPos="random_free" departSpeed="max">
        <route edges="58 41 44 23 26 29" />
    </vehicle>
    <vehicle id="107" depart="8.97" departLane="free" departPos="random_free" departSpeed="max">
        <route edges="47 50 53 2 8" />
    </vehicle>
    <vehicle id="108" depart="9.05" departLane="free" departPos="random_free" departSpeed="max">
        <route edges="28 20" />
    </vehicle>
    <vehicle id="109" depart="9.13" departLane="free" departPos="random_free" departSpeed="max">
        <route edges="5 1 52 49 46" />
    </vehicle>
    <vehicle id="110" depart="9.22" departLane="free" departPos="random_free" departSpeed="max">
        <route edges="28 25 22 43 35 17 29" />
    </vehicle>
    <vehicle id="111" depart="9.30" departLane="free" departPos="random_free" departSpeed="max">
        <route edges="37 43 40 55 2 8" />
    </vehicle>
    <vehicle id="112" depart="9.39" departLane="free" departPos="random_free" departSpeed="max">
        <route edges="7 1 52 49 46" />
    </vehicle>
    <vehicle id="113" depart="9.47" departLane="free" departPos="random_free" departSpeed="max">
        <route edges="37 23 26 20" />
    </vehicle>
    <vehicle id="114" depart="9.55" departLane="free" departPos="random_free" departSpeed="max">
        <route edges="19 16 13 50 53 2 8" />
    </vehicle>
    <vehicle id="115" depart="9.64" departLane="free" departPos="random_free" departSpeed="max">
        <route edges="37 43 40 59" />
    </vehicle>
    <vehicle id="116" depart="9.72" departLane="free" departPos="random_free" departSpeed="max">
        <route edges="47 50 53 2 8" />
    </vehicle>
    <vehicle id="117" depart="9.80" departLane="free" departPos="random_free" departSpeed="max">
        <route edges="10 53 56 41 44 38" />
    </vehicle>
    <vehicle id="118" depart="9.89" departLane="free" departPos="random_free" departSpeed="max">
        <route edges="7 4" />
    </vehicle>
    <vehicle id="119" depart="9.97" departLane="free" departPos="random_free" departSpeed="max">
        <route edges="47 14 34 40 55 52 49 46" />
    </vehicle>
    <vehicle id="120" depart="10.06" departLane="free" departPos="random_free" departSpeed="max">
        <route edges="28 25 32" />
    </vehicle>
    <vehicle id="121" depart="10.14" departLane="free" departPos="random_free" departSpeed="max">
        <route edges="7 1 52 49 14 34 44 38" />
    </vehicle>
    <vehicle id="122" depart="10.22" departLane="free" departPos="random_free" departSpeed="max">
        <route edges="58 55 52 11" />
    </vehicle>
    <vehicle id="123" depart="10.31" departLane="free" departPos="random_free" departSpeed="max">
        <route edges="58 41 44 23 26 20" />
    </vehicle>
    <vehicle id="124" depart="10.39" departLane="free" departPos="random_free" departSpeed="max">
        <route edges="19 25 32" />
    </vehicle>
    <vehicle id="125" depart="10.48" departLane="free" departPos="random_free" departSpeed="max">
        <route edges="5 1 52 49 14 17 20" />
    </vehicle>
    <vehicle id="126" depart="10.56" departLane="free" departPos="random_free" departSpeed="max">
        <route edges="47 50 53 56 41 44 38" />
    </vehicle>
    <vehicle id="127" depart="10.64" departLane="free" departPos="random_free" departSpeed="max">
        <route edges="10 53 2 4" />
    </vehicle>
    <vehicle id="128" depart="10.73" departLane="free" departPos="random_free" departSpeed="max">
        <route edges="5 8" />
    </vehicle>
    <vehicle id="129" depart="10.81" departLane="free" departPos="random_free" departSpeed="max">
        <route edges="5 1 52 49 14 34 44 38" />
    </vehicle>
    <vehicle id="130" depart="10.89" departLane="free" departPos="random_free" departSpeed="max">
        <route edges="7 1 52 49 14 17 29" />
    </vehicle>
    <vehicle id="131" depart="10.98" departLane="free" departPos="random_free" departSpeed="max">
        <route edges="28 16 13 46" />
    </vehicle>
    <vehicle id="132" depart="11.06" departLane="free" departPos="random_free" departSpeed="max">
        <route edges="5 1 52 49 14 17 25 32" />
    </vehicle>
    <vehicle id="133" depart="11.15" departLane="free" departPos="random_free" departSpeed="max">
        <route edges="19 16 13 50 53 2 4" />
    </vehicle>
    <vehicle id="134" depart="11.23" departLane="free" departPos="random_free" departSpeed="max">
        <route edges="10 53 2 8" />
    </vehicle>
    <vehicle id="135" depart="11.31" departLane="free" departPos="random_free" departSpeed="max">
        <route edges="28 16 13 50 53 2 4" />
    </vehicle>
    <vehicle id="136" depart="11.40" departLane="free" departPos="random_free" departSpeed="max">
        <route edges="47 14 17 29" />
    </vehicle>
    <vehicle id="137" depart="11.48" departLane="free" departPos="random_free" departSpeed="max">
        <route edges="28 20" />
    </vehicle>
    <vehicle id="138" depart="11.56" departLane="free" departPos="random_free" departSpeed="max">
        <route edges="47 50 53 56 59" />
    </vehicle>
    <vehicle id="139" depart="11.65" departLane="free" departPos="random_free" departSpeed="max">
        <route edges="28 16 13 46" />
    </vehicle>
    <vehicle id="140" depart="11.73" departLane="free" departPos="random_free" departSpeed="max">
        <route edges="7 1 52 49 14 17 29" />
    </vehicle>
    <vehicle id="141" depart="11.82" departLane="free" departPos="random_free" departSpeed="max">
        <route edges="10 49 14 34 40 55 52 11" />
    </vehicle>
    <vehicle id="142" depart="11.90" departLane="free" departPos="random_free" departSpeed="max">
        <route edges="28 25 32" />
    </vehicle>
    <vehicle id="143" depart="11.98" departLane="free" departPos="random_free" departSpeed="max">
        <route edges="19 16 13 46" />
    </vehicle>
    <vehicle id="144" depart="12.07" departLane="free" departPos="random_free" departSpeed="max">
        <route edges="10 49 14 34 40 55 52 11" />
    </vehicle>
    <vehicle id="145" depart="12.15" departLane="free" departPos="random_free" departSpeed="max">
        <route edges="28 16 13 46" />
    </vehicle>
    <vehicle id="146" depart="12.23" departLane="free" departPos="random_free" departSpeed="max">
        <route edges="31 26 16 13 46" />
    </vehicle>
    <vehicle id="147" depart="12.32" departLane="free" departPos="random_free" departSpeed="max">
        <route edges="37 23 26 29" />
    </vehicle>
    <vehicle id="148" depart="12.40" departLane="free" departPos="random_free" departSpeed="max">
        <route edges="5 1 52 49 14 17 29" />
    </vehicle>
    <vehicle id="149" depart="12.49" departLane="free" departPos="random_free" departSpeed="max">
        <route edges="5 1 52 49 14 17 20" />
    </vehicle>
    <vehicle id="150" depart="12.57" departLane="free" departPos="random_free" departSpeed="max">
        <route edges="5 1 52 11" />
    </vehicle>
    <vehicle id="151" depart="12.65" departLane="free" departPos="random_free" departSpeed="max">
        <route edges="7 1 52 49 14 34 40 55 2 8" />
    </vehicle>
    <vehicle id="152" depart="12.74" departLane="free" departPos="random_free" departSpeed="max">
        <route edges="58 41 44 23 26 29" />
    </vehicle>
    <vehicle id="153" depart="12.82" departLane="free" departPos="random_free" departSpeed="max">
        <route edges="19 25 32" />
    </vehicle>
    <vehicle id="154" depart="12.91" departLane="free" departPos="random_free" departSpeed="max">
        <route edges="7 1 52 49 14 34 40 59" />
    </vehicle>
    <vehicle id="155" depart="12.99" departLane="free" departPos="random_free" departSpeed="max">
        <route edges="19 16 13 46" />
    </vehicle>
    <vehicle id="156" depart="13.07" departLane="free" departPos="random_free" departSpeed="max">
        <route edges="31 26 16 13 46" />
    </vehicle>
    <vehicle id="157" depart="13.16" departLane="free" departPos="random_free" departSpeed="max">
        <route edges="19 16 13 46" />
    </vehicle>
    <vehicle id="158" depart="13.24" departLane="free" departPos="random_free" departSpeed="max">
        <route edges="10 53 56 41 44 38" />
    </vehicle>
    <vehicle id="159" depart="13.32" departLane="free" departPos="random_free" departSpeed="max">
        <route edges="47 14 17 20" />
    </vehicle>
    <vehicle id="160" depart="13.41" departLane="free" departPos="random_free" departSpeed="max">
        <route edges="19 25 32" />
    </vehicle>
    <vehicle id="161" depart="13.49" departLane="free" departPos="random_free" departSpeed="max">
        <route edges="31 22 43 35 17 25 32" />
    </vehicle>
    <vehicle id="162" depart="13.58" departLane="free" departPos="random_free" departSpeed="max">
        <route edges="19 16 13 50 11" />
    </vehicle>
    <vehicle id="163" depart="13.66" departLane="free" departPos="random_free" departSpeed="max">
        <route edges="47 14 34 40 55 52 49 46" />
    </vehicle>
    <vehicle id="164" depart="13.74" departLane="free" departPos="random_free" departSpeed="max">
        <route edges="31 26 20" />
    </vehicle>
    <vehicle id="165" depart="13.83" departLane="free" departPos="random_free" departSpeed="max">
        <route edges="47 50 53 2 4" />
    </vehicle>
    <vehicle id="166" depart="13.91" departLane="free" departPos="random_free" departSpeed="max">
        <route edges="5 1 52 11" />
    </vehicle>
    <vehicle id="167" depart="13.99" departLane="free" departPos="random_free" departSpeed="max">
        <route edges="5 8" />
    </vehicle>
    <vehicle id="168" depart="14.08" departLane="free" departPos="random_free" departSpeed="max">
        <route edges="28 20" />
    </vehicle>
    <vehicle id="169" depart="14.16" departLane="free" departPos="random_free" departSpeed="max">
        <route edges="28 16 13 46" />
    </vehicle>
    <vehicle id="170" depart="14.25" departLane="free" departPos="random_free" departSpeed="max">
        <route edges="5 1 52 49 14 17 25 32" />
    </vehicle>
    <vehicle id="171" depart="14.33" departLane="free" departPos="random_free" departSpeed="max">
        <route edges="10 49 14 17 20" />
    </vehicle>
    <vehicle id="172" depart="14.41" departLane="free" departPos="random_free" departSpeed="max">
        <route edges="7 4" />
    </vehicle>
    <vehicle id="173" depart="14.50" departLane="free" departPos="random_free" departSpeed="max">
        <route edges="19 16 13 46" />
    </vehicle>
    <vehicle id="174" depart="14.58" departLane="free" departPos="random_free" departSpeed="max">
        <route edges="37 43 35 17 25 22 38" />
    </vehicle>
    <vehicle id="175" depart="14.67" departLane="free" departPos="random_free" departSpeed="max">
        <route edges="47 14 17 20" />
    </vehicle>
    <vehicle id="176" depart="14.75" departLane="free" departPos="random_free" departSpeed="max">
        <route edges="37 23 26 29" />
    </vehicle>
    <vehicle id="177" depart="14.83" departLane="free" departPos="random_free" departSpeed="max">
        <route edges="37 43 40 55 52 11" />
    </vehicle>
    <vehicle id="178" depart="14.92" departLane="free" departPos="random_free" departSpeed="max">
        <route edges="19 16 13 50 53 2 8" />
    </vehicle>
</routes>